45
PBE96/6-31G* optimized final energy = -2962.27865989 
Si                     2.12974839    -0.09791350    -0.51733668
Si                     1.22362364    -2.78185215     0.77920731
Si                    -1.08140239    -4.14651343    -0.60273852
Si                     1.42703679     2.82164205     0.21596097
Si                    -1.18549286     4.40727633    -0.11175927
O                      3.66259350    -0.01244430    -0.11948692
O                      1.41221949    -1.29066693     0.26243217
O                      2.27959255    -3.72270341     0.03222684
O                      2.04014139    -0.32527642    -2.09235304
O                     -0.60949995    -3.80626244    -2.08775570
O                     -0.24895140    -3.28515253     0.44942209
O                      1.39777516     1.25949582    -0.10350319
O                      2.16195362     3.08212230     1.60131986
O                      1.39816050    -2.83254721     2.35808686
O                     -2.62873015    -3.78738106    -0.41867778
O                     -0.87768878    -5.70579499    -0.32993344
O                     -0.08381029     3.33092020     0.29149057
O                     -2.56056421     4.01629947     0.60400359
O                     -0.75550692     5.86366811     0.39345128
O                     -1.33996982     4.45216846    -1.69699310
O                      2.23621660     3.62484366    -0.92281219
H                      2.37483625     3.84955256    -1.86657699
H                      1.61309978    -0.46265943    -2.96365186
H                     -0.15833987    -3.53374062    -2.91394407
H                      2.24606280     3.12672118     2.57668412
H                      2.97796296    -4.36160188    -0.22171664
H                     -1.59206231     4.25447181    -2.62314940
H                     -3.56579602    -4.07196518    -0.45498917
H                     -0.44914659    -6.58496996    -0.39161552
H                     -3.35739026     4.34615548     1.06947332
H                     -0.26252767     6.70633081     0.30806710
H                      1.91127997    -2.60293769     3.16082423
H                      4.62244955    -0.14451920    -0.26656849
O                     -2.19690729    -0.42049299     3.55618395
H                     -2.74129970    -1.16493726     3.87820802
H                     -1.67482628    -0.82691184     2.77053462
O                     -3.59927741     1.25478624     1.98998881
H                     -3.12658093     0.67760348     2.67848590
H                     -4.26342236     0.64521275     1.61163169
O                     -1.03197624    -1.34083800     1.36456982
H                     -1.18056429    -0.50420976     0.80230274
H                     -1.61839259    -2.01649046     0.97946065
O                     -1.63737521     0.80670445     0.12196511
H                     -0.92346757     1.47324351     0.20073349
H                     -2.35198964     1.13771113     0.75053233
