54
PBE96/6-31G* optimized final energy = -3554.77543287
Si                     2.47024421     1.38227904    -0.57176209
Si                     2.54928866    -1.39519407     0.83714178
Si                    -1.97242521    -4.68544135    -0.30401336
Si                     0.86695471    -3.52977259    -0.46614124
Si                     0.79407590     3.90258870     0.05579888
Si                    -2.20561347     4.46725669    -0.30470274
O                      3.87646708     2.01083723    -0.19406580
O                      2.20949010     0.04669735     0.26117120
O                      3.86891939    -1.93957014     0.11569885
O                      2.47047297     1.07521577    -2.13576720
O                      1.19607114    -3.10637607    -1.96819264
O                      1.34459288    -2.39153726     0.54293628
O                      1.31070799     2.41616777    -0.20277708
O                      1.38802824     4.45731575     1.42205919
O                      2.72533459    -1.31896485     2.41482604
O                     -3.22896923    -3.86336575     0.23370292
O                     -0.70931946    -3.72359339    -0.27940677
O                      1.59907558    -4.90889952    -0.13554842
O                     -1.71546771    -5.95133565     0.63832096
O                     -0.79982480     3.85777062     0.12789870
O                     -3.36139280     3.65179411     0.44041170
O                     -2.31036621     6.00125401     0.13923193
O                     -2.36081216     4.39230578    -1.88873029
O                     -2.24047168    -5.18999528    -1.79430164
O                      1.27736428     4.89072072    -1.12179960
H                      1.33235392     5.11169711    -2.07497607
H                      2.12070373     0.76332171    -2.99645519
H                      1.52709930    -2.72731632    -2.80910493
H                      1.44815914     4.56728953     2.39401147
H                      4.74666235    -2.30561263    -0.12090380
H                     -4.16722098    -3.77485564     0.50249470
H                     -2.52539660     4.08250307    -2.80378992
H                      2.30670139    -5.58611561    -0.16785743
H                     -1.72241071    -6.89588185     0.89944295
H                     -2.33592557    -5.23609210    -2.76855179
H                     -4.22472574     3.70255444     0.90136549
H                     -2.14076242     6.95857541     0.01606214
H                      3.12398202    -0.89349989     3.20251835
H                      4.82285831     2.21473395    -0.34628142
O                     -0.35856186     0.88585061     2.48370457
H                     -1.25703977     1.09437902     2.07148185
H                      0.27071368     1.04470767     1.74996950
O                     -1.25672996    -0.55096602    -0.51369442
H                     -1.33458560    -1.19383692     0.25811018
H                     -0.34900732    -0.20668135    -0.38368459
O                     -4.17969121    -1.61352470     1.82412225
H                     -3.26767154    -1.95902115     1.95189954
H                     -3.98271868    -0.68302277     1.57228955
O                     -1.21855584    -1.68352349     1.97894444
H                     -0.47253112    -2.31122159     1.90051592
H                     -0.81690015    -0.83794374     2.34229236
O                     -2.72013886     0.99165708     1.15597174
H                     -2.93382026     1.89775682     0.82640835
H                     -2.28587576     0.51990885     0.38002846
